<?xml version='1.0' encoding='UTF-8'?>
<routes><vType id="car" accel="2.6" decel="4.5" sigma="0.5" length="5" maxSpeed="70" color="1,0,0" /><route id="route1" edges="1_2" /><vehicle id="veh1" type="car" route="route1" depart="2" /><route id="route2" edges="1_2" /><vehicle id="veh2" type="car" route="route2" depart="4" /><route id="route3" edges="1_2" /><vehicle id="veh3" type="car" route="route3" depart="6" /><route id="route4" edges="1_3" /><vehicle id="veh4" type="car" route="route4" depart="8" /><route id="route5" edges="1_3" /><vehicle id="veh5" type="car" route="route5" depart="10" /><route id="route6" edges="1_3" /><vehicle id="veh6" type="car" route="route6" depart="12" /><route id="route7" edges="1_2 2_6 6_5 5_4" /><vehicle id="veh7" type="car" route="route7" depart="14" /><route id="route8" edges="1_2 2_6 6_5" /><vehicle id="veh8" type="car" route="route8" depart="16" /><route id="route9" edges="1_2 2_6" /><vehicle id="veh9" type="car" route="route9" depart="18" /><route id="route10" edges="1_3 3_4 4_5 5_6" /><vehicle id="veh10" type="car" route="route10" depart="20" /><route id="route11" edges="1_2 2_6" /><vehicle id="veh11" type="car" route="route11" depart="22" /><route id="route12" edges="1_3 3_4 4_11 11_10 10_9 9_5 5_6" /><vehicle id="veh12" type="car" route="route12" depart="24" /><route id="route13" edges="1_2 2_6 6_8" /><vehicle id="veh13" type="car" route="route13" depart="26" /><route id="route14" edges="1_2 2_6 6_8" /><vehicle id="veh14" type="car" route="route14" depart="28" /><route id="route15" edges="1_2 2_6 6_8" /><vehicle id="veh15" type="car" route="route15" depart="30" /><route id="route16" edges="1_2 2_6 6_8 8_9" /><vehicle id="veh16" type="car" route="route16" depart="32" /><route id="route17" edges="1_2 2_6 6_5 5_9 9_10" /><vehicle id="veh17" type="car" route="route17" depart="34" /><route id="route18" edges="1_2 2_6 6_8 8_16 16_10" /><vehicle id="veh18" type="car" route="route18" depart="36" /><route id="route19" edges="1_3 3_4 4_11 11_10" /><vehicle id="veh19" type="car" route="route19" depart="38" /><route id="route20" edges="1_3 3_4 4_5 5_9 9_10" /><vehicle id="veh20" type="car" route="route20" depart="40" /><route id="route21" edges="1_2 2_6 6_8 8_9 9_10" /><vehicle id="veh21" type="car" route="route21" depart="42" /><route id="route22" edges="1_3 3_12 12_13 13_24 24_21 21_22 22_23 23_14 14_11" /><vehicle id="veh22" type="car" route="route22" depart="44" /><route id="route23" edges="1_3 3_12 12_13 13_24 24_23 23_14 14_11" /><vehicle id="veh23" type="car" route="route23" depart="46" /><route id="route24" edges="1_3 3_12 12_13 13_24 24_23 23_22 22_15 15_10 10_11" /><vehicle id="veh24" type="car" route="route24" depart="48" /><route id="route25" edges="1_2 2_6 6_5 5_4 4_3 3_12" /><vehicle id="veh25" type="car" route="route25" depart="50" /><route id="route26" edges="1_3 3_12" /><vehicle id="veh26" type="car" route="route26" depart="52" /><route id="route27" edges="1_3 3_4 4_11 11_10 10_15 15_14 14_23 23_24 24_13 13_12" /><vehicle id="veh27" type="car" route="route27" depart="54" /><route id="route28" edges="1_2 2_6 6_5 5_4 4_3 3_12 12_13" /><vehicle id="veh28" type="car" route="route28" depart="56" /><route id="route29" edges="1_3 3_4 4_11 11_10 10_17 17_19 19_15" /><vehicle id="veh29" type="car" route="route29" depart="58" /><route id="route30" edges="1_2 2_6 6_8 8_16" /><vehicle id="veh30" type="car" route="route30" depart="60" /><route id="route31" edges="1_2 2_6 6_8 8_7 7_18 18_16" /><vehicle id="veh31" type="car" route="route31" depart="62" /><route id="route32" edges="1_2 2_6 6_5 5_9 9_10 10_16 16_8 8_7 7_18" /><vehicle id="veh32" type="car" route="route32" depart="64" /><route id="route33" edges="1_3 3_4 4_11 11_12 12_13 13_24 24_23 23_22 22_15 15_19" /><vehicle id="veh33" type="car" route="route33" depart="66" /><route id="route34" edges="1_2 2_6 6_5 5_9 9_8 8_16 16_18 18_20" /><vehicle id="veh34" type="car" route="route34" depart="68" /><route id="route35" edges="1_2 2_6 6_8 8_16 16_17 17_19 19_20 20_21" /><vehicle id="veh35" type="car" route="route35" depart="70" /><route id="route36" edges="1_3 3_12 12_13 13_24 24_21" /><vehicle id="veh36" type="car" route="route36" depart="72" /><route id="route37" edges="1_3 3_12 12_13 13_24 24_23 23_22 22_21" /><vehicle id="veh37" type="car" route="route37" depart="74" /><route id="route38" edges="1_3 3_12 12_13 13_24 24_23" /><vehicle id="veh38" type="car" route="route38" depart="76" /><route id="route39" edges="1_3 3_12 12_13 13_24" /><vehicle id="veh39" type="car" route="route39" depart="78" /><route id="route40" edges="2_1" /><vehicle id="veh40" type="car" route="route40" depart="80" /><route id="route41" edges="2_1" /><vehicle id="veh41" type="car" route="route41" depart="82" /><route id="route42" edges="2_6 6_5 5_4 4_3" /><vehicle id="veh42" type="car" route="route42" depart="84" /><route id="route43" edges="2_1 1_3" /><vehicle id="veh43" type="car" route="route43" depart="86" /><route id="route44" edges="2_1 1_3" /><vehicle id="veh44" type="car" route="route44" depart="88" /><route id="route45" edges="2_1 1_3" /><vehicle id="veh45" type="car" route="route45" depart="90" /><route id="route46" edges="2_1 1_3" /><vehicle id="veh46" type="car" route="route46" depart="92" /><route id="route47" edges="2_1 1_3 3_12 12_11 11_4" /><vehicle id="veh47" type="car" route="route47" depart="94" /><route id="route48" edges="2_1 1_3 3_4 4_5" /><vehicle id="veh48" type="car" route="route48" depart="96" /><route id="route49" edges="2_6 6_5" /><vehicle id="veh49" type="car" route="route49" depart="98" /><route id="route50" edges="2_6 6_8 8_7 7_18 18_16 16_10 10_11 11_4 4_5" /><vehicle id="veh50" type="car" route="route50" depart="100" /><route id="route51" edges="2_6 6_5" /><vehicle id="veh51" type="car" route="route51" depart="102" /><route id="route52" edges="2_6" /><vehicle id="veh52" type="car" route="route52" depart="104" /><route id="route53" edges="2_6" /><vehicle id="veh53" type="car" route="route53" depart="106" /><route id="route54" edges="2_6 6_8 8_9 9_10 10_15 15_19 19_20 20_18 18_7" /><vehicle id="veh54" type="car" route="route54" depart="108" /><route id="route55" edges="2_6 6_8" /><vehicle id="veh55" type="car" route="route55" depart="110" /><route id="route56" edges="2_1 1_3 3_4 4_5 5_6 6_8" /><vehicle id="veh56" type="car" route="route56" depart="112" /><route id="route57" edges="2_6 6_8" /><vehicle id="veh57" type="car" route="route57" depart="114" /><route id="route58" edges="2_6 6_5 5_9 9_10 10_16 16_8" /><vehicle id="veh58" type="car" route="route58" depart="116" /><route id="route59" edges="2_6 6_8 8_9" /><vehicle id="veh59" type="car" route="route59" depart="118" /><route id="route60" edges="2_1 1_3 3_4 4_5 5_9" /><vehicle id="veh60" type="car" route="route60" depart="120" /><route id="route61" edges="2_6 6_5 5_9 9_8 8_7 7_18 18_16 16_17 17_10" /><vehicle id="veh61" type="car" route="route61" depart="122" /><route id="route62" edges="2_6 6_8 8_9 9_10" /><vehicle id="veh62" type="car" route="route62" depart="124" /><route id="route63" edges="2_1 1_3 3_12 12_11 11_4 4_5 5_9 9_10" /><vehicle id="veh63" type="car" route="route63" depart="126" /><route id="route64" edges="2_6 6_5 5_9 9_10" /><vehicle id="veh64" type="car" route="route64" depart="128" /><route id="route65" edges="2_1 1_3 3_12 12_11" /><vehicle id="veh65" type="car" route="route65" depart="130" /><route id="route66" edges="2_6 6_5 5_4 4_3 3_12 12_11" /><vehicle id="veh66" type="car" route="route66" depart="132" /><route id="route67" edges="2_1 1_3 3_4 4_11" /><vehicle id="veh67" type="car" route="route67" depart="134" /><route id="route68" edges="2_1 1_3 3_4 4_11" /><vehicle id="veh68" type="car" route="route68" depart="136" /><route id="route69" edges="2_1 1_3 3_12" /><vehicle id="veh69" type="car" route="route69" depart="138" /><route id="route70" edges="2_6 6_8 8_9 9_10 10_15 15_14 14_11 11_12" /><vehicle id="veh70" type="car" route="route70" depart="140" /><route id="route71" edges="2_1 1_3 3_12 12_11 11_14 14_23 23_24 24_13" /><vehicle id="veh71" type="car" route="route71" depart="142" /><route id="route72" edges="2_6 6_8 8_16 16_10 10_17 17_19 19_15 15_14" /><vehicle id="veh72" type="car" route="route72" depart="144" /><route id="route73" edges="2_6 6_8 8_16 16_17 17_19 19_20 20_22 22_23 23_14" /><vehicle id="veh73" type="car" route="route73" depart="146" /><route id="route74" edges="2_1 1_3 3_12 12_11 11_14" /><vehicle id="veh74" type="car" route="route74" depart="148" /><route id="route75" edges="2_6 6_8 8_16 16_18 18_20 20_19 19_17 17_10 10_15" /><vehicle id="veh75" type="car" route="route75" depart="150" /><route id="route76" edges="2_6 6_8 8_7 7_18 18_16 16_10 10_15" /><vehicle id="veh76" type="car" route="route76" depart="152" /><route id="route77" edges="2_1 1_3 3_4 4_11 11_10 10_16" /><vehicle id="veh77" type="car" route="route77" depart="154" /><route id="route78" edges="2_6 6_8 8_16" /><vehicle id="veh78" type="car" route="route78" depart="156" /><route id="route79" edges="2_1 1_3 3_12 12_11 11_4 4_5 5_6 6_8 8_16" /><vehicle id="veh79" type="car" route="route79" depart="158" /><route id="route80" edges="2_6 6_8 8_16 16_17" /><vehicle id="veh80" type="car" route="route80" depart="160" /><route id="route81" edges="2_1 1_3 3_4 4_11 11_10 10_9 9_8 8_16 16_17 17_19" /><vehicle id="veh81" type="car" route="route81" depart="162" /><route id="route82" edges="2_6 6_5 5_9 9_10 10_15 15_19 19_20" /><vehicle id="veh82" type="car" route="route82" depart="164" /><route id="route83" edges="2_6 6_5 5_9 9_8 8_7 7_18 18_20 20_22" /><vehicle id="veh83" type="car" route="route83" depart="166" /><route id="route84" edges="3_1" /><vehicle id="veh84" type="car" route="route84" depart="168" /><route id="route85" edges="3_1 1_2" /><vehicle id="veh85" type="car" route="route85" depart="170" /><route id="route86" edges="3_1 1_2" /><vehicle id="veh86" type="car" route="route86" depart="172" /><route id="route87" edges="3_1 1_2" /><vehicle id="veh87" type="car" route="route87" depart="174" /><route id="route88" edges="3_4" /><vehicle id="veh88" type="car" route="route88" depart="176" /><route id="route89" edges="3_4" /><vehicle id="veh89" type="car" route="route89" depart="178" /><route id="route90" edges="3_4" /><vehicle id="veh90" type="car" route="route90" depart="180" /><route id="route91" edges="3_1 1_2 2_6 6_5" /><vehicle id="veh91" type="car" route="route91" depart="182" /><route id="route92" edges="3_12 12_11 11_4 4_5 5_6" /><vehicle id="veh92" type="car" route="route92" depart="184" /><route id="route93" edges="3_4 4_5 5_9 9_8 8_6" /><vehicle id="veh93" type="car" route="route93" depart="186" /><route id="route94" edges="3_1 1_2 2_6" /><vehicle id="veh94" type="car" route="route94" depart="188" /><route id="route95" edges="3_4 4_5 5_6 6_8 8_7" /><vehicle id="veh95" type="car" route="route95" depart="190" /><route id="route96" edges="3_1 1_2 2_6 6_8" /><vehicle id="veh96" type="car" route="route96" depart="192" /><route id="route97" edges="3_1 1_2 2_6 6_8" /><vehicle id="veh97" type="car" route="route97" depart="194" /><route id="route98" edges="3_1 1_2 2_6 6_8" /><vehicle id="veh98" type="car" route="route98" depart="196" /><route id="route99" edges="3_4 4_5 5_6 6_8" /><vehicle id="veh99" type="car" route="route99" depart="198" /><route id="route100" edges="3_4 4_5 5_9 9_8" /><vehicle id="veh100" type="car" route="route100" depart="200" /><route id="route101" edges="3_1 1_2 2_6 6_8 8_9" /><vehicle id="veh101" type="car" route="route101" depart="202" /><route id="route102" edges="3_4 4_5 5_9" /><vehicle id="veh102" type="car" route="route102" depart="204" /><route id="route103" edges="3_1 1_2 2_6 6_5 5_4 4_11 11_14 14_15 15_10" /><vehicle id="veh103" type="car" route="route103" depart="206" /><route id="route104" edges="3_4 4_11 11_12 12_13 13_24 24_21 21_22 22_15 15_10" /><vehicle id="veh104" type="car" route="route104" depart="208" /><route id="route105" edges="3_4 4_5 5_9 9_10" /><vehicle id="veh105" type="car" route="route105" depart="210" /><route id="route106" edges="3_1 1_2 2_6 6_5 5_9 9_10" /><vehicle id="veh106" type="car" route="route106" depart="212" /><route id="route107" edges="3_4 4_11" /><vehicle id="veh107" type="car" route="route107" depart="214" /><route id="route108" edges="3_12 12_11" /><vehicle id="veh108" type="car" route="route108" depart="216" /><route id="route109" edges="3_12" /><vehicle id="veh109" type="car" route="route109" depart="218" /><route id="route110" edges="3_12" /><vehicle id="veh110" type="car" route="route110" depart="220" /><route id="route111" edges="3_4 4_11 11_12 12_13" /><vehicle id="veh111" type="car" route="route111" depart="222" /><route id="route112" edges="3_1 1_2 2_6 6_5 5_4 4_11 11_14" /><vehicle id="veh112" type="car" route="route112" depart="224" /><route id="route113" edges="3_12 12_13 13_24 24_21 21_20 20_22 22_23 23_14 14_15" /><vehicle id="veh113" type="car" route="route113" depart="226" /><route id="route114" edges="3_1 1_2 2_6 6_8 8_16 16_10 10_15" /><vehicle id="veh114" type="car" route="route114" depart="228" /><route id="route115" edges="3_12 12_13 13_24 24_21 21_20 20_19 19_15" /><vehicle id="veh115" type="car" route="route115" depart="230" /><route id="route116" edges="3_12 12_13 13_24 24_21 21_22 22_15" /><vehicle id="veh116" type="car" route="route116" depart="232" /><route id="route117" edges="3_4 4_5 5_6 6_8 8_16" /><vehicle id="veh117" type="car" route="route117" depart="234" /><route id="route118" edges="3_12 12_11 11_10 10_16" /><vehicle id="veh118" type="car" route="route118" depart="236" /><route id="route119" edges="3_1 1_2 2_6 6_8 8_7 7_18 18_16 16_10 10_17" /><vehicle id="veh119" type="car" route="route119" depart="238" /><route id="route120" edges="3_1 1_2 2_6 6_8 8_16 16_17 17_10 10_15 15_22" /><vehicle id="veh120" type="car" route="route120" depart="240" /><route id="route121" edges="3_4 4_11 11_12 12_13 13_24 24_23" /><vehicle id="veh121" type="car" route="route121" depart="242" /><route id="route122" edges="3_1 1_2 2_6 6_8 8_7 7_18 18_20 20_21 21_22 22_23" /><vehicle id="veh122" type="car" route="route122" depart="244" /><route id="route123" edges="3_12 12_11 11_10 10_15 15_22 22_23" /><vehicle id="veh123" type="car" route="route123" depart="246" /><route id="route124" edges="4_11 11_12 12_3 3_1" /><vehicle id="veh124" type="car" route="route124" depart="248" /><route id="route125" edges="4_3 3_1" /><vehicle id="veh125" type="car" route="route125" depart="250" /><route id="route126" edges="4_3 3_1" /><vehicle id="veh126" type="car" route="route126" depart="252" /><route id="route127" edges="4_5 5_9 9_8 8_6 6_2 2_1" /><vehicle id="veh127" type="car" route="route127" depart="254" /><route id="route128" edges="4_3 3_1 1_2" /><vehicle id="veh128" type="car" route="route128" depart="256" /><route id="route129" edges="4_3 3_1 1_2" /><vehicle id="veh129" type="car" route="route129" depart="258" /><route id="route130" edges="4_11 11_12 12_3" /><vehicle id="veh130" type="car" route="route130" depart="260" /><route id="route131" edges="4_5 5_6 6_2 2_1 1_3" /><vehicle id="veh131" type="car" route="route131" depart="262" /><route id="route132" edges="4_3" /><vehicle id="veh132" type="car" route="route132" depart="264" /><route id="route133" edges="4_5" /><vehicle id="veh133" type="car" route="route133" depart="266" /><route id="route134" edges="4_11 11_14 14_15 15_19 19_17 17_10 10_9 9_5" /><vehicle id="veh134" type="car" route="route134" depart="268" /><route id="route135" edges="4_3 3_1 1_2 2_6 6_8 8_9 9_5" /><vehicle id="veh135" type="car" route="route135" depart="270" /><route id="route136" edges="4_3 3_1 1_2 2_6 6_5" /><vehicle id="veh136" type="car" route="route136" depart="272" /><route id="route137" edges="4_3 3_1 1_2 2_6" /><vehicle id="veh137" type="car" route="route137" depart="274" /><route id="route138" edges="4_11 11_14 14_23 23_24 24_13 13_12 12_3 3_1 1_2 2_6" /><vehicle id="veh138" type="car" route="route138" depart="276" /><route id="route139" edges="4_11 11_12 12_13 13_24 24_21 21_20 20_18 18_7 7_8" /><vehicle id="veh139" type="car" route="route139" depart="278" /><route id="route140" edges="4_5 5_9 9_8" /><vehicle id="veh140" type="car" route="route140" depart="280" /><route id="route141" edges="4_3 3_1 1_2 2_6 6_5 5_9 9_10 10_16 16_8" /><vehicle id="veh141" type="car" route="route141" depart="282" /><route id="route142" edges="4_5 5_9" /><vehicle id="veh142" type="car" route="route142" depart="284" /><route id="route143" edges="4_3 3_1 1_2 2_6 6_5 5_9" /><vehicle id="veh143" type="car" route="route143" depart="286" /><route id="route144" edges="4_3 3_1 1_2 2_6 6_5 5_9" /><vehicle id="veh144" type="car" route="route144" depart="288" /><route id="route145" edges="4_5 5_9 9_10" /><vehicle id="veh145" type="car" route="route145" depart="290" /><route id="route146" edges="4_11 11_10" /><vehicle id="veh146" type="car" route="route146" depart="292" /><route id="route147" edges="4_11 11_10" /><vehicle id="veh147" type="car" route="route147" depart="294" /><route id="route148" edges="4_11 11_14 14_15 15_19 19_17 17_10" /><vehicle id="veh148" type="car" route="route148" depart="296" /><route id="route149" edges="4_11" /><vehicle id="veh149" type="car" route="route149" depart="298" /><route id="route150" edges="4_5 5_9 9_8 8_6 6_2 2_1 1_3 3_12" /><vehicle id="veh150" type="car" route="route150" depart="300" /><route id="route151" edges="4_11 11_12" /><vehicle id="veh151" type="car" route="route151" depart="302" /><route id="route152" edges="4_3 3_12 12_13" /><vehicle id="veh152" type="car" route="route152" depart="304" /><route id="route153" edges="4_11 11_10 10_9 9_8 8_6 6_2 2_1 1_3 3_12 12_13" /><vehicle id="veh153" type="car" route="route153" depart="306" /><route id="route154" edges="4_11 11_14" /><vehicle id="veh154" type="car" route="route154" depart="308" /><route id="route155" edges="4_11 11_10 10_17 17_19 19_15 15_14" /><vehicle id="veh155" type="car" route="route155" depart="310" /><route id="route156" edges="4_11 11_12 12_3 3_1 1_2 2_6 6_5 5_9 9_10 10_15" /><vehicle id="veh156" type="car" route="route156" depart="312" /><route id="route157" edges="4_5 5_9 9_8 8_7 7_18 18_16 16_10 10_15" /><vehicle id="veh157" type="car" route="route157" depart="314" /><route id="route158" edges="4_3 3_12 12_13 13_24 24_23 23_14 14_11 11_10 10_16" /><vehicle id="veh158" type="car" route="route158" depart="316" /><route id="route159" edges="4_3 3_1 1_2 2_6 6_8 8_16" /><vehicle id="veh159" type="car" route="route159" depart="318" /><route id="route160" edges="4_11 11_10 10_17" /><vehicle id="veh160" type="car" route="route160" depart="320" /><route id="route161" edges="4_3 3_1 1_2 2_6 6_5 5_9 9_8 8_16 16_17" /><vehicle id="veh161" type="car" route="route161" depart="322" /><route id="route162" edges="4_3 3_1 1_2 2_6 6_5 5_9 9_10 10_17" /><vehicle id="veh162" type="car" route="route162" depart="324" /><route id="route163" edges="4_3 3_1 1_2 2_6 6_8 8_16 16_18" /><vehicle id="veh163" type="car" route="route163" depart="326" /><route id="route164" edges="4_5 5_6 6_2 2_1 1_3 3_12 12_13 13_24 24_21 21_20" /><vehicle id="veh164" type="car" route="route164" depart="328" /><route id="route165" edges="4_11 11_12 12_13 13_24 24_21 21_20" /><vehicle id="veh165" type="car" route="route165" depart="330" /><route id="route166" edges="4_11 11_12 12_3 3_1 1_2 2_6 6_8 8_7 7_18 18_20" /><vehicle id="veh166" type="car" route="route166" depart="332" /><route id="route167" edges="4_11 11_10 10_16 16_18 18_20" /><vehicle id="veh167" type="car" route="route167" depart="334" /><route id="route168" edges="4_5 5_9 9_8 8_7 7_18 18_16 16_10 10_15 15_19 19_20" /><vehicle id="veh168" type="car" route="route168" depart="336" /><route id="route169" edges="4_11 11_12 12_13 13_24 24_21" /><vehicle id="veh169" type="car" route="route169" depart="338" /><route id="route170" edges="4_11 11_14 14_15 15_19 19_20 20_21 21_22" /><vehicle id="veh170" type="car" route="route170" depart="340" /><route id="route171" edges="4_3 3_12 12_13 13_24 24_21 21_22" /><vehicle id="veh171" type="car" route="route171" depart="342" /><route id="route172" edges="4_5 5_6 6_8 8_9 9_10 10_15 15_14 14_23" /><vehicle id="veh172" type="car" route="route172" depart="344" /><route id="route173" edges="4_5 5_9 9_10 10_17 17_19 19_20 20_21 21_22 22_23" /><vehicle id="veh173" type="car" route="route173" depart="346" /><route id="route174" edges="5_6 6_2 2_1" /><vehicle id="veh174" type="car" route="route174" depart="348" /><route id="route175" edges="5_9 9_10 10_17 17_16 16_8 8_6 6_2" /><vehicle id="veh175" type="car" route="route175" depart="350" /><route id="route176" edges="5_4 4_3 3_1 1_2" /><vehicle id="veh176" type="car" route="route176" depart="352" /><route id="route177" edges="5_9 9_8 8_6 6_2" /><vehicle id="veh177" type="car" route="route177" depart="354" /><route id="route178" edges="5_4 4_3" /><vehicle id="veh178" type="car" route="route178" depart="356" /><route id="route179" edges="5_4 4_11 11_10 10_16 16_8 8_6 6_2 2_1 1_3" /><vehicle id="veh179" type="car" route="route179" depart="358" /><route id="route180" edges="5_6 6_2 2_1 1_3 3_4" /><vehicle id="veh180" type="car" route="route180" depart="360" /><route id="route181" edges="5_4" /><vehicle id="veh181" type="car" route="route181" depart="362" /><route id="route182" edges="5_4" /><vehicle id="veh182" type="car" route="route182" depart="364" /><route id="route183" edges="5_4" /><vehicle id="veh183" type="car" route="route183" depart="366" /><route id="route184" edges="5_4 4_3 3_1 1_2 2_6" /><vehicle id="veh184" type="car" route="route184" depart="368" /><route id="route185" edges="5_6" /><vehicle id="veh185" type="car" route="route185" depart="370" /><route id="route186" edges="5_4 4_3 3_1 1_2 2_6 6_8 8_7" /><vehicle id="veh186" type="car" route="route186" depart="372" /><route id="route187" edges="5_4 4_11 11_10 10_16 16_17 17_19 19_20 20_18 18_7" /><vehicle id="veh187" type="car" route="route187" depart="374" /><route id="route188" edges="5_9 9_8 8_16 16_18 18_7" /><vehicle id="veh188" type="car" route="route188" depart="376" /><route id="route189" edges="5_4 4_3 3_1 1_2 2_6 6_8" /><vehicle id="veh189" type="car" route="route189" depart="378" /><route id="route190" edges="5_9" /><vehicle id="veh190" type="car" route="route190" depart="380" /><route id="route191" edges="5_4 4_11 11_12 12_3 3_1 1_2 2_6 6_8 8_9" /><vehicle id="veh191" type="car" route="route191" depart="382" /><route id="route192" edges="5_9" /><vehicle id="veh192" type="car" route="route192" depart="384" /><route id="route193" edges="5_9 9_8 8_7 7_18 18_20 20_19 19_17 17_10" /><vehicle id="veh193" type="car" route="route193" depart="386" /><route id="route194" edges="5_9 9_10" /><vehicle id="veh194" type="car" route="route194" depart="388" /><route id="route195" edges="5_6 6_8 8_16 16_10" /><vehicle id="veh195" type="car" route="route195" depart="390" /><route id="route196" edges="5_9 9_8 8_16 16_10 10_11" /><vehicle id="veh196" type="car" route="route196" depart="392" /><route id="route197" edges="5_4 4_11" /><vehicle id="veh197" type="car" route="route197" depart="394" /><route id="route198" edges="5_6 6_2 2_1 1_3 3_12 12_11" /><vehicle id="veh198" type="car" route="route198" depart="396" /><route id="route199" edges="5_4 4_11" /><vehicle id="veh199" type="car" route="route199" depart="398" /><route id="route200" edges="5_4 4_11 11_14 14_23 23_24 24_13 13_12" /><vehicle id="veh200" type="car" route="route200" depart="400" /><route id="route201" edges="5_9 9_8 8_16 16_10 10_15 15_14 14_11 11_12" /><vehicle id="veh201" type="car" route="route201" depart="402" /><route id="route202" edges="5_4 4_3 3_12 12_13" /><vehicle id="veh202" type="car" route="route202" depart="404" /><route id="route203" edges="5_6 6_2 2_1 1_3 3_12 12_11 11_14" /><vehicle id="veh203" type="car" route="route203" depart="406" /><route id="route204" edges="5_9 9_8 8_16 16_10 10_11 11_14" /><vehicle id="veh204" type="car" route="route204" depart="408" /><route id="route205" edges="5_4 4_11 11_12 12_13 13_24 24_23 23_14 14_15" /><vehicle id="veh205" type="car" route="route205" depart="410" /><route id="route206" edges="5_4 4_11 11_12 12_13 13_24 24_21 21_22 22_20 20_19 19_15" /><vehicle id="veh206" type="car" route="route206" depart="412" /><route id="route207" edges="5_4 4_11 11_12 12_13 13_24 24_21 21_22 22_15" /><vehicle id="veh207" type="car" route="route207" depart="414" /><route id="route208" edges="5_9 9_8 8_16" /><vehicle id="veh208" type="car" route="route208" depart="416" /><route id="route209" edges="5_9 9_10 10_16" /><vehicle id="veh209" type="car" route="route209" depart="418" /><route id="route210" edges="5_4 4_11 11_10 10_17" /><vehicle id="veh210" type="car" route="route210" depart="420" /><route id="route211" edges="5_4 4_3 3_1 1_2 2_6 6_8 8_16 16_17 17_19" /><vehicle id="veh211" type="car" route="route211" depart="422" /><route id="route212" edges="5_4 4_11 11_14 14_15 15_10 10_17 17_19 19_20" /><vehicle id="veh212" type="car" route="route212" depart="424" /><route id="route213" edges="5_6 6_2 2_1 1_3 3_4 4_11 11_10 10_17 17_19 19_20" /><vehicle id="veh213" type="car" route="route213" depart="426" /><route id="route214" edges="5_6 6_2 2_1 1_3 3_12 12_11 11_10 10_15 15_22 22_20" /><vehicle id="veh214" type="car" route="route214" depart="428" /><route id="route215" edges="5_6 6_2 2_1 1_3 3_4 4_11 11_10 10_15 15_22 22_21" /><vehicle id="veh215" type="car" route="route215" depart="430" /><route id="route216" edges="5_4 4_11 11_10 10_15 15_22 22_20 20_21" /><vehicle id="veh216" type="car" route="route216" depart="432" /><route id="route217" edges="5_4 4_3 3_12 12_11 11_14 14_23 23_22" /><vehicle id="veh217" type="car" route="route217" depart="434" /><route id="route218" edges="5_6 6_8 8_16 16_10 10_11 11_14 14_23" /><vehicle id="veh218" type="car" route="route218" depart="436" /><route id="route219" edges="5_6 6_8 8_9 9_10 10_16 16_17 17_19 19_15 15_22 22_23" /><vehicle id="veh219" type="car" route="route219" depart="438" /><route id="route220" edges="5_9 9_8 8_7 7_18 18_16 16_17 17_10 10_15 15_14 14_23" /><vehicle id="veh220" type="car" route="route220" depart="440" /><route id="route221" edges="6_2 2_1" /><vehicle id="veh221" type="car" route="route221" depart="442" /><route id="route222" edges="6_2 2_1" /><vehicle id="veh222" type="car" route="route222" depart="444" /><route id="route223" edges="6_5 5_4 4_3 3_1" /><vehicle id="veh223" type="car" route="route223" depart="446" /><route id="route224" edges="6_2" /><vehicle id="veh224" type="car" route="route224" depart="448" /><route id="route225" edges="6_2" /><vehicle id="veh225" type="car" route="route225" depart="450" /><route id="route226" edges="6_2" /><vehicle id="veh226" type="car" route="route226" depart="452" /><route id="route227" edges="6_2 2_1 1_3" /><vehicle id="veh227" type="car" route="route227" depart="454" /><route id="route228" edges="6_8 8_9 9_5 5_4 4_3" /><vehicle id="veh228" type="car" route="route228" depart="456" /><route id="route229" edges="6_5 5_9 9_10 10_11 11_4" /><vehicle id="veh229" type="car" route="route229" depart="458" /><route id="route230" edges="6_5 5_4" /><vehicle id="veh230" type="car" route="route230" depart="460" /><route id="route231" edges="6_8 8_9 9_5" /><vehicle id="veh231" type="car" route="route231" depart="462" /><route id="route232" edges="6_8 8_9 9_5" /><vehicle id="veh232" type="car" route="route232" depart="464" /><route id="route233" edges="6_8 8_9 9_10 10_11 11_4 4_5" /><vehicle id="veh233" type="car" route="route233" depart="466" /><route id="route234" edges="6_2 2_1 1_3 3_4 4_5" /><vehicle id="veh234" type="car" route="route234" depart="468" /><route id="route235" edges="6_8 8_7" /><vehicle id="veh235" type="car" route="route235" depart="470" /><route id="route236" edges="6_8 8_7" /><vehicle id="veh236" type="car" route="route236" depart="472" /><route id="route237" edges="6_2 2_1 1_3 3_4 4_5 5_9 9_8 8_7" /><vehicle id="veh237" type="car" route="route237" depart="474" /><route id="route238" edges="6_5 5_9 9_8" /><vehicle id="veh238" type="car" route="route238" depart="476" /><route id="route239" edges="6_5 5_9 9_10 10_16 16_8" /><vehicle id="veh239" type="car" route="route239" depart="478" /><route id="route240" edges="6_5 5_9 9_8" /><vehicle id="veh240" type="car" route="route240" depart="480" /><route id="route241" edges="6_8" /><vehicle id="veh241" type="car" route="route241" depart="482" /><route id="route242" edges="6_8 8_9" /><vehicle id="veh242" type="car" route="route242" depart="484" /><route id="route243" edges="6_2 2_1 1_3 3_12 12_11 11_10" /><vehicle id="veh243" type="car" route="route243" depart="486" /><route id="route244" edges="6_5 5_9 9_8 8_7 7_18 18_16 16_10" /><vehicle id="veh244" type="car" route="route244" depart="488" /><route id="route245" edges="6_5 5_4 4_11 11_10" /><vehicle id="veh245" type="car" route="route245" depart="490" /><route id="route246" edges="6_2 2_1 1_3 3_12 12_11 11_4 4_5 5_9 9_10" /><vehicle id="veh246" type="car" route="route246" depart="492" /><route id="route247" edges="6_2 2_1 1_3 3_4 4_11 11_10" /><vehicle id="veh247" type="car" route="route247" depart="494" /><route id="route248" edges="6_2 2_1 1_3 3_4 4_11" /><vehicle id="veh248" type="car" route="route248" depart="496" /><route id="route249" edges="6_8 8_7 7_18 18_16 16_17 17_10 10_11" /><vehicle id="veh249" type="car" route="route249" depart="498" /><route id="route250" edges="6_5 5_9 9_10 10_11" /><vehicle id="veh250" type="car" route="route250" depart="500" /><route id="route251" edges="6_5 5_4 4_3 3_12" /><vehicle id="veh251" type="car" route="route251" depart="502" /><route id="route252" edges="6_2 2_1 1_3 3_12" /><vehicle id="veh252" type="car" route="route252" depart="504" /><route id="route253" edges="6_2 2_1 1_3 3_4 4_11 11_12 12_13" /><vehicle id="veh253" type="car" route="route253" depart="506" /><route id="route254" edges="6_8 8_7 7_18 18_20 20_19 19_15 15_22 22_23 23_24 24_13" /><vehicle id="veh254" type="car" route="route254" depart="508" 