<?xml version="1.0" encoding="utf-8"?>
<configuration>
  <input>
    <net-file value="SiouxFalls.net"/>
    <route-files value="SiouxFalls.routes.xml"/>
  </input>
  <time>
    <begin value="0"/>
    <end value="3600"/>
  </time>
  <output>
    <summary-output value="summary.xml"/>
  </output>
</configuration>
