<?xml version="1.0" encoding="UTF-8"?>

<!-- generated on 2024-11-20 18:48:03 by Eclipse SUMO netconvert Version 1.19.0
<configuration xmlns:xsi="http://www.w3.org/2001/XMLSchema-instance" xsi:noNamespaceSchemaLocation="http://sumo.dlr.de/xsd/netconvertConfiguration.xsd">

    <input>
        <node-files value="SiouxFalls.nod.xml"/>
        <edge-files value="SiouxFalls.edg.xml"/>
    </input>

    <output>
        <output-file value="SiouxFalls.net.xml"/>
    </output>

</configuration>
-->

<net version="1.16" junctionCornerDetail="5" limitTurnSpeed="5.50" xmlns:xsi="http://www.w3.org/2001/XMLSchema-instance" xsi:noNamespaceSchemaLocation="http://sumo.dlr.de/xsd/net_file.xsd">

    <location netOffset="96793.38,-43490.71" convBoundary="0.00,0.00,99.95,122.12" origBoundary="-96793.38,43490.71,-96693.42,43612.83" projParameter="!"/>

    <edge id=":1_0" function="internal">
        <lane id=":1_0_0" index="0" speed="6.07" length="7.86" shape="26.39,123.32 24.23,123.27 22.62,122.54 21.56,121.12 21.05,119.02"/>
    </edge>
    <edge id=":1_1" function="internal">
        <lane id=":1_1_0" index="0" speed="3.90" length="2.62" shape="24.23,118.71 24.40,119.41 24.76,119.88 25.29,120.13 26.01,120.15"/>
    </edge>
    <edge id=":10_0" function="internal">
        <lane id=":10_0_0" index="0" speed="5.91" length="6.54" shape="60.50,57.27 60.09,56.71 58.93,56.25 57.03,55.88 54.38,55.61"/>
    </edge>
    <edge id=":10_1" function="internal">
        <lane id=":10_1_0" index="0" speed="13.89" length="10.58" shape="60.50,57.27 60.31,46.69"/>
    </edge>
    <edge id=":10_2" function="internal">
        <lane id=":10_2_0" index="0" speed="7.59" length="11.34" shape="60.50,57.27 60.96,55.40 62.58,53.82 65.36,52.50 69.31,51.47"/>
    </edge>
    <edge id=":10_3" function="internal">
        <lane id=":10_3_0" index="0" speed="6.65" length="10.45" shape="60.50,57.27 61.41,55.71 63.79,54.47 66.81,53.70 69.65,53.53"/>
    </edge>
    <edge id=":10_4" function="internal">
        <lane id=":10_4_0" index="0" speed="3.65" length="4.67" shape="60.50,57.27 61.22,56.02 62.00,55.57 62.82,55.93 63.69,57.08"/>
    </edge>
    <edge id=":10_5" function="internal">
        <lane id=":10_5_0" index="0" speed="5.45" length="6.63" shape="70.18,56.77 68.74,56.65 66.54,56.52 64.54,56.60 63.69,57.08"/>
    </edge>
    <edge id=":10_6" function="internal">
        <lane id=":10_6_0" index="0" speed="13.89" length="15.84" shape="70.18,56.77 54.38,55.61"/>
    </edge>
    <edge id=":10_7" function="internal">
        <lane id=":10_7_0" index="0" speed="8.67" length="4.54" shape="70.18,56.77 65.88,55.87 65.76,55.79"/>
    </edge>
    <edge id=":10_8" function="internal">
        <lane id=":10_8_0" index="0" speed="4.49" length="1.87" shape="70.18,56.77 68.48,55.98"/>
    </edge>
    <edge id=":10_9" function="internal">
        <lane id=":10_9_0" index="0" speed="3.69" length="1.63" shape="70.18,56.77 68.83,56.16 68.74,56.04"/>
    </edge>
    <edge id=":10_25" function="internal">
        <lane id=":10_25_0" index="0" speed="8.67" length="11.29" shape="65.76,55.79 62.79,53.89 60.94,50.83 60.31,46.69"/>
    </edge>
    <edge id=":10_26" function="internal">
        <lane id=":10_26_0" index="0" speed="4.49" length="5.61" shape="68.48,55.98 68.37,55.93 67.53,54.26 67.79,52.51 69.31,51.47"/>
    </edge>
    <edge id=":10_27" function="internal">
        <lane id=":10_27_0" index="0" speed="3.69" length="3.18" shape="68.74,56.04 68.29,55.42 68.56,54.54 69.65,53.53"/>
    </edge>
    <edge id=":10_10" function="internal">
        <lane id=":10_10_0" index="0" speed="6.03" length="6.80" shape="69.83,54.63 67.11,55.24 65.19,55.86 64.05,56.47 63.69,57.08"/>
    </edge>
    <edge id=":10_11" function="internal">
        <lane id=":10_11_0" index="0" speed="13.89" length="15.52" shape="69.83,54.63 66.05,55.24 62.13,55.62 58.21,55.75 54.38,55.61"/>
    </edge>
    <edge id=":10_12" function="internal">
        <lane id=":10_12_0" index="0" speed="7.36" length="13.59" shape="69.83,54.63 66.63,54.31 63.55,52.51 61.23,49.78 60.31,46.69"/>
    </edge>
    <edge id=":10_13" function="internal">
        <lane id=":10_13_0" index="0" speed="3.66" length="4.28" shape="69.83,54.63 71.31,54.26 71.78,53.95 71.22,53.71 69.65,53.53"/>
    </edge>
    <edge id=":10_14" function="internal">
        <lane id=":10_14_0" index="0" speed="3.65" length="4.68" shape="69.83,54.63 68.51,54.03 67.99,53.31 68.25,52.45 69.31,51.47"/>
    </edge>
    <edge id=":10_15" function="internal">
        <lane id=":10_15_0" index="0" speed="6.12" length="9.02" shape="63.51,46.67 63.88,49.20 64.97,50.84 66.78,51.60 69.31,51.47"/>
    </edge>
    <edge id=":10_16" function="internal">
        <lane id=":10_16_0" index="0" speed="7.11" length="10.32" shape="63.51,46.67 63.90,49.50 65.05,51.59 66.97,52.93 69.65,53.53"/>
    </edge>
    <edge id=":10_17" function="internal">
        <lane id=":10_17_0" index="0" speed="13.89" length="10.41" shape="63.51,46.67 63.69,57.08"/>
    </edge>
    <edge id=":10_18" function="internal">
        <lane id=":10_18_0" index="0" speed="7.71" length="13.88" shape="63.51,46.67 62.68,49.91 60.54,52.86 57.60,54.94 54.38,55.61"/>
    </edge>
    <edge id=":10_19" function="internal">
        <lane id=":10_19_0" index="0" speed="3.65" length="4.67" shape="63.51,46.67 62.71,47.88 61.91,48.28 61.11,47.88 60.31,46.69"/>
    </edge>
    <edge id=":10_20" function="internal">
        <lane id=":10_20_0" index="0" speed="6.45" length="9.38" shape="54.62,52.42 57.12,52.22 58.90,51.20 59.96,49.35 60.31,46.69"/>
    </edge>
    <edge id=":10_21" function="internal">
        <lane id=":10_21_0" index="0" speed="13.89" length="14.76" shape="54.62,52.42 58.33,52.56 61.99,52.45 65.64,52.08 69.31,51.47"/>
    </edge>
    <edge id=":10_22" function="internal">
        <lane id=":10_22_0" index="0" speed="13.89" length="15.07" shape="54.62,52.42 69.65,53.53"/>
    </edge>
    <edge id=":10_23" function="internal">
        <lane id=":10_23_0" index="0" speed="7.34" length="5.65" shape="54.62,52.42 57.45,52.97 60.03,53.96"/>
    </edge>
    <edge id=":10_24" function="internal">
        <lane id=":10_24_0" index="0" speed="3.65" length="1.44" shape="54.62,52.42 55.75,53.30"/>
    </edge>
    <edge id=":10_28" function="internal">
        <lane id=":10_28_0" index="0" speed="7.34" length="4.94" shape="60.03,53.96 60.38,54.09 62.70,55.54 63.69,57.08"/>
    </edge>
    <edge id=":10_29" function="internal">
        <lane id=":10_29_0" index="0" speed="3.65" length="3.23" shape="55.75,53.30 56.09,54.13 55.64,54.90 54.38,55.61"/>
    </edge>
    <edge id=":11_0" function="internal">
        <lane id=":11_0_0" index="0" speed="6.39" length="9.04" shape="53.79,55.56 51.30,55.74 49.50,56.67 48.41,58.37 48.01,60.84"/>
    </edge>
    <edge id=":11_1" function="internal">
        <lane id=":11_1_0" index="0" speed="13.89" length="15.53" shape="53.79,55.56 38.27,54.98"/>
    </edge>
    <edge id=":11_2" function="internal">
        <lane id=":11_2_0" index="0" speed="9.43" length="3.98" shape="53.79,55.56 50.47,54.61 50.03,54.33"/>
    </edge>
    <edge id=":11_3" function="internal">
        <lane id=":11_3_0" index="0" speed="3.65" length="1.44" shape="53.79,55.56 52.65,54.68"/>
    </edge>
    <edge id=":11_16" function="internal">
        <lane id=":11_16_0" index="0" speed="9.43" length="10.78" shape="50.03,54.33 47.21,52.51 44.53,49.68 42.93,46.54"/>
    </edge>
    <edge id=":11_17" function="internal">
        <lane id=":11_17_0" index="0" speed="3.65" length="3.23" shape="52.65,54.68 52.31,53.85 52.77,53.08 54.02,52.37"/>
    </edge>
    <edge id=":11_4" function="internal">
        <lane id=":11_4_0" index="0" speed="8.28" length="11.21" shape="46.00,45.67 47.17,48.43 48.89,50.47 51.18,51.78 54.02,52.37"/>
    </edge>
    <edge id=":11_5" function="internal">
        <lane id=":11_5_0" index="0" speed="13.89" length="15.35" shape="46.00,45.67 46.90,49.37 47.55,53.18 47.92,57.04 48.01,60.84"/>
    </edge>
    <edge id=":11_6" function="internal">
        <lane id=":11_6_0" index="0" speed="7.48" length="14.91" shape="46.00,45.67 46.52,49.76 45.40,52.68 42.65,54.42 38.27,54.98"/>
    </edge>
    <edge id=":11_7" function="internal">
        <lane id=":11_7_0" index="0" speed="3.65" length="4.67" shape="46.00,45.67 45.56,47.04 44.90,47.65 44.02,47.48 42.93,46.54"/>
    </edge>
    <edge id=":11_8" function="internal">
        <lane id=":11_8_0" index="0" speed="5.85" length="8.61" shape="38.29,51.78 40.88,51.46 42.51,50.49 43.20,48.84 42.93,46.54"/>
    </edge>
    <edge id=":11_9" function="internal">
        <lane id=":11_9_0" index="0" speed="13.89" length="15.74" shape="38.29,51.78 54.02,52.37"/>
    </edge>
    <edge id=":11_10" function="internal">
        <lane id=":11_10_0" index="0" speed="8.02" length="4.83" shape="38.29,51.78 41.69,52.58 42.81,53.32"/>
    </edge>
    <edge id=":11_11" function="internal">
        <lane id=":11_11_0" index="0" speed="3.65" length="1.44" shape="38.29,51.78 39.48,52.58"/>
    </edge>
    <edge id=":11_18" function="internal">
        <lane id=":11_18_0" index="0" speed="8.02" length="9.53" shape="42.81,53.32 44.84,54.66 47.15,57.56 48.01,60.84"/>
    </edge>
    <edge id=":11_19" function="internal">
        <lane id=":11_19_0" index="0" speed="3.65" length="3.23" shape="39.48,52.58 39.88,53.39 39.48,54.18 38.27,54.98"/>
    </edge>
    <edge id=":11_12" function="internal">
        <lane id=":11_12_0" index="0" speed="6.78" length="9.99" shape="44.81,60.78 44.44,58.26 43.23,56.45 41.17,55.35 38.27,54.98"/>
    </edge>
    <edge id=":11_13" function="internal">
        <lane id=":11_13_0" index="0" speed="13.89" length="14.42" shape="44.81,60.78 44.74,57.13 44.41,53.59 43.81,50.09 42.93,46.54"/>
    </edge>
    <edge id=":11_14" function="internal">
        <lane id=":11_14_0" index="0" speed="7.90" length="14.41" shape="44.81,60.78 45.44,56.85 47.19,54.14 50.05,52.65 54.02,52.37"/>
    </edge>
    <edge id=":11_15" function="internal">
        <lane id=":11_15_0" index="0" speed="3.65" length="4.67" shape="44.81,60.78 45.63,59.60 46.44,59.21 47.23,59.62 48.01,60.84"/>
    </edge>
    <edge id=":12_0" function="internal">
        <lane id=":12_0_0" index="0" speed="13.89" length="14.34" shape="13.23,61.32 10.12,47.32"/>
    </edge>
    <edge id=":12_1" function="internal">
        <lane id=":12_1_0" index="0" speed="7.68" length="4.14" shape="13.23,61.32 13.01,57.19"/>
    </edge>
    <edge id=":12_2" function="internal">
        <lane id=":12_2_0" index="0" speed="3.65" length="1.44" shape="13.23,61.32 13.78,59.99"/>
    </edge>
    <edge id=":12_9" function="internal">
        <lane id=":12_9_0" index="0" speed="7.68" length="10.89" shape="13.01,57.19 13.00,57.08 14.25,54.06 16.97,52.26 21.18,51.68"/>
    </edge>
    <edge id=":12_10" function="internal">
        <lane id=":12_10_0" index="0" speed="3.65" length="3.23" shape="13.78,59.99 14.49,59.44 15.35,59.67 16.37,60.69"/>
    </edge>
    <edge id=":12_3" function="internal">
        <lane id=":12_3_0" index="0" speed="6.11" length="9.06" shape="21.16,54.88 18.62,55.23 16.98,56.32 16.23,58.14 16.37,60.69"/>
    </edge>
    <edge id=":12_4" function="internal">
        <lane id=":12_4_0" index="0" speed="8.94" length="14.54" shape="21.16,54.88 17.03,54.39 13.81,52.96 11.51,50.61 10.12,47.32"/>
    </edge>
    <edge id=":12_5" function="internal">
        <lane id=":12_5_0" index="0" speed="3.65" length="4.67" shape="21.16,54.88 19.97,54.07 19.57,53.27 19.97,52.47 21.18,51.68"/>
    </edge>
    <edge id=":12_6" function="internal">
        <lane id=":12_6_0" index="0" speed="7.60" length="10.27" shape="13.23,46.55 14.20,48.78 15.85,50.38 18.17,51.34 21.18,51.68"/>
    </edge>
    <edge id=":12_7" function="internal">
        <lane id=":12_7_0" index="0" speed="13.89" length="14.49" shape="13.23,46.55 16.37,60.69"/>
    </edge>
    <edge id=":12_8" function="internal">
        <lane id=":12_8_0" index="0" speed="3.65" length="1.44" shape="13.23,46.55 12.74,47.91"/>
    </edge>
    <edge id=":12_11" function="internal">
        <lane id=":12_11_0" index="0" speed="3.65" length="3.23" shape="12.74,47.91 12.06,48.49 11.19,48.30 10.12,47.32"/>
    </edge>
    <edge id=":13_0" function="internal">
        <lane id=":13_0_0" index="0" speed="6.20" length="11.30" shape="-0.22,5.73 -0.60,2.36 0.27,0.28 2.38,-0.52 5.74,-0.04"/>
    </edge>
    <edge id=":13_1" function="internal">
        <lane id=":13_1_0" index="0" speed="3.97" length="3.77" shape="4.87,3.04 3.75,2.88 3.05,3.14 2.76,3.84 2.88,4.96"/>
    </edge>
    <edge id=":14_0" function="internal">
        <lane id=":14_0_0" index="0" speed="13.89" length="15.17" shape="42.87,46.35 41.97,42.68 41.31,38.93 40.92,35.14 40.81,31.37"/>
    </edge>
    <edge id=":14_1" function="internal">
        <lane id=":14_1_0" index="0" speed="7.48" length="4.34" shape="42.87,46.35 42.36,42.26 42.44,42.05"/>
    </edge>
    <edge id=":14_2" function="internal">
        <lane id=":14_2_0" index="0" speed="3.65" length="1.44" shape="42.87,46.35 43.31,44.98"/>
    </edge>
    <edge id=":14_9" function="internal">
        <lane id=":14_9_0" index="0" speed="7.48" length="10.57" shape="42.44,42.05 43.48,39.34 46.23,37.60 50.60,37.04"/>
    </edge>
    <edge id=":14_10" function="internal">
        <lane id=":14_10_0" index="0" speed="3.65" length="3.23" shape="43.31,44.98 43.98,44.37 44.85,44.54 45.95,45.48"/>
    </edge>
    <edge id=":14_3" function="internal">
        <lane id=":14_3_0" index="0" speed="5.85" length="8.61" shape="50.59,40.24 48.00,40.56 46.36,41.53 45.68,43.17 45.95,45.48"/>
    </edge>
    <edge id=":14_4" function="internal">
        <lane id=":14_4_0" index="0" speed="8.21" length="15.05" shape="50.59,40.24 46.28,39.67 43.21,38.00 41.39,35.23 40.81,31.37"/>
    </edge>
    <edge id=":14_5" function="internal">
        <lane id=":14_5_0" index="0" speed="3.65" length="4.67" shape="50.59,40.24 49.39,39.43 48.99,38.63 49.40,37.83 50.60,37.04"/>
    </edge>
    <edge id=":14_6" function="internal">
        <lane id=":14_6_0" index="0" speed="6.76" length="9.85" shape="44.01,31.44 44.40,33.88 45.63,35.62 47.70,36.68 50.60,37.04"/>
    </edge>
    <edge id=":14_7" function="internal">
        <lane id=":14_7_0" index="0" speed="13.89" length="14.22" shape="44.01,31.44 44.10,35.06 44.45,38.53 45.07,41.96 45.95,45.48"/>
    </edge>
    <edge id=":14_8" function="internal">
        <lane id=":14_8_0" index="0" speed="3.65" length="1.44" shape="44.01,31.44 43.18,32.62"/>
    </edge>
    <edge id=":14_11" function="internal">
        <lane id=":14_11_0" index="0" speed="3.65" length="3.23" shape="43.18,32.62 42.37,33.00 41.58,32.59 40.81,31.37"/>
    </edge>
    <edge id=":15_0" function="internal">
        <lane id=":15_0_0" index="0" speed="6.55" length="9.09" shape="60.30,45.94 59.94,43.47 58.89,41.69 57.14,40.62 54.69,40.26"/>
    </edge>
    <edge id=":15_1" function="internal">
        <lane id=":15_1_0" index="0" speed="13.89" length="14.51" shape="60.30,45.94 60.40,31.44"/>
    </edge>
    <edge id=":15_2" function="internal">
        <lane id=":15_2_0" index="0" speed="7.98" length="14.24" shape="60.30,45.94 60.84,42.07 62.49,39.32 65.26,37.68 69.13,37.16"/>
    </edge>
    <edge id=":15_3" function="internal">
        <lane id=":15_3_0" index="0" speed="3.65" length="4.67" shape="60.30,45.94 61.10,44.74 61.90,44.34 62.70,44.73 63.50,45.93"/>
    </edge>
    <edge id=":15_4" function="internal">
        <lane id=":15_4_0" index="0" speed="6.48" length="9.03" shape="69.10,40.36 66.64,40.69 64.89,41.73 63.84,43.47 63.50,45.93"/>
    </edge>
    <edge id=":15_5" function="internal">
        <lane id=":15_5_0" index="0" speed="13.89" length="14.41" shape="69.10,40.36 54.69,40.26"/>
    </edge>
    <edge id=":15_6" function="internal">
        <lane id=":15_6_0" index="0" speed="7.99" length="4.06" shape="69.10,40.36 65.24,39.77 65.11,39.69"/>
    </edge>
    <edge id=":15_7" function="internal">
        <lane id=":15_7_0" index="0" speed="3.65" length="1.44" shape="69.10,40.36 67.91,39.55"/>
    </edge>
    <edge id=":15_16" function="internal">
        <lane id=":15_16_0" index="0" speed="7.99" length="10.17" shape="65.11,39.69 62.50,38.09 60.89,35.31 60.40,31.44"/>
    </edge>
    <edge id=":15_17" function="internal">
        <lane id=":15_17_0" index="0" speed="3.65" length="3.23" shape="67.91,39.55 67.52,38.75 67.92,37.95 69.13,37.16"/>
    </edge>
    <edge id=":15_8" function="internal">
        <lane id=":15_8_0" index="0" speed="6.48" length="9.01" shape="63.60,31.54 63.91,33.98 64.93,35.73 66.67,36.79 69.13,37.16"/>
    </edge>
    <edge id=":15_9" function="internal">
        <lane id=":15_9_0" index="0" speed="13.89" length="14.39" shape="63.60,31.54 63.50,45.93"/>
    </edge>
    <edge id=":15_10" function="internal">
        <lane id=":15_10_0" index="0" speed="8.04" length="14.18" shape="63.60,31.54 62.99,35.37 61.30,38.10 58.53,39.73 54.69,40.26"/>
    </edge>
    <edge id=":15_11" function="internal">
        <lane id=":15_11_0" index="0" speed="3.65" length="4.67" shape="63.60,31.54 62.77,32.71 61.95,33.09 61.17,32.66 60.40,31.44"/>
    </edge>
    <edge id=":15_12" function="internal">
        <lane id=":15_12_0" index="0" speed="6.56" length="9.10" shape="54.71,37.06 57.16,36.72 58.93,35.67 60.01,33.91 60.40,31.44"/>
    </edge>
    <edge id=":15_13" function="internal">
        <lane id=":15_13_0" index="0" speed="13.89" length="14.42" shape="54.71,37.06 69.13,37.16"/>
    </edge>
    <edge id=":15_14" function="internal">
        <lane id=":15_14_0" index="0" speed="8.03" length="4.07" shape="54.71,37.06 58.54,37.63 58.71,37.73"/>
    </edge>
    <edge id=":15_15" function="internal">
        <lane id=":15_15_0" index="0" speed="3.65" length="1.44" shape="54.71,37.06 55.91,37.86"/>
    </edge>
    <edge id=":15_18" function="internal">
        <lane id=":15_18_0" index="0" speed="8.03" length="10.15" shape="58.71,37.73 61.29,39.30 62.94,42.07 63.50,45.93"/>
    </edge>
    <edge id=":15_19" function="internal">
        <lane id=":15_19_0" index="0" speed="3.65" length="3.23" shape="55.91,37.86 56.30,38.67 55.90,39.46 54.69,40.26"/>
    </edge>
    <edge id=":16_0" function="internal">
        <lane id=":16_0_0" index="0" speed="6.61" length="8.83" shape="80.39,62.28 80.02,60.17 78.91,58.60 77.05,57.57 74.45,57.09"/>
    </edge>
    <edge id=":16_1" function="internal">
        <lane id=":16_1_0" index="0" speed="13.89" length="8.64" shape="80.39,62.28 80.39,53.63"/>
    </edge>
    <edge id=":16_2" function="internal">
        <lane id=":16_2_0" index="0" speed="7.61" length="3.62" shape="80.39,62.28 81.22,59.40 81.62,58.92"/>
    </edge>
    <edge id=":16_3" function="internal">
        <lane id=":16_3_0" index="0" speed="3.65" length="1.44" shape="80.39,62.28 81.19,61.08"/>
    </edge>
    <edge id=":16_16" function="internal">
        <lane id=":16_16_0" index="0" speed="7.61" length="9.11" shape="81.62,58.92 83.32,56.89 86.16,55.11 89.19,54.44"/>
    </edge>
    <edge id=":16_17" function="internal">
        <lane id=":16_17_0" index="0" speed="3.65" length="3.23" shape="81.19,61.08 81.99,60.68 82.79,61.08 83.59,62.28"/>
    </edge>
    <edge id=":16_4" function="internal">
        <lane id=":16_4_0" index="0" speed="6.26" length="8.27" shape="89.19,57.64 86.74,57.93 84.99,58.80 83.94,60.25 83.59,62.28"/>
    </edge>
    <edge id=":16_5" function="internal">
        <lane id=":16_5_0" index="0" speed="13.89" length="14.75" shape="89.19,57.64 74.45,57.09"/>
    </edge>
    <edge id=":16_6" function="internal">
        <lane id=":16_6_0" index="0" speed="6.85" length="10.11" shape="89.19,57.64 86.46,57.29 83.59,56.39 81.32,55.10 80.39,53.63"/>
    </edge>
    <edge id=":16_7" function="internal">
        <lane id=":16_7_0" index="0" speed="3.65" length="4.67" shape="89.19,57.64 87.99,56.84 87.59,56.04 87.99,55.24 89.19,54.44"/>
    </edge>
    <edge id=":16_8" function="internal">
        <lane id=":16_8_0" index="0" speed="5.36" length="5.80" shape="83.59,53.63 84.33,54.18 86.02,54.41 87.90,54.45 89.19,54.44"/>
    </edge>
    <edge id=":16_9" function="internal">
        <lane id=":16_9_0" index="0" speed="13.89" length="8.64" shape="83.59,53.63 83.59,62.28"/>
    </edge>
    <edge id=":16_10" function="internal">
        <lane id=":16_10_0" index="0" speed="6.72" length="1.87" shape="83.59,53.63 82.62,55.08 82.51,55.13"/>
    </edge>
    <edge id=":16_11" function="internal">
        <lane id=":16_11_0" index="0" speed="3.65" length="1.44" shape="83.59,53.63 82.79,54.83"/>
    </edge>
    <edge id=":16_18" function="internal">
        <lane id=":16_18_0" index="0" speed="6.72" length="8.39" shape="82.51,55.13 80.24,56.22 77.25,56.94 74.45,57.09"/>
    </edge>
    <edge id=":16_19" function="internal">
        <lane id=":16_19_0" index="0" speed="3.65" length="3.23" shape="82.79,54.83 81.99,55.23 81.19,54.83 80.39,53.63"/>
    </edge>
    <edge id=":16_12" function="internal">
        <lane id=":16_12_0" index="0" speed="5.26" length="5.86" shape="74.69,53.90 76.00,54.03 77.92,54.17 79.64,54.11 80.39,53.63"/>
    </edge>
    <edge id=":16_13" function="internal">
        <lane id=":16_13_0" index="0" speed="13.89" length="14.52" shape="74.69,53.90 89.19,54.44"/>
    </edge>
    <edge id=":16_14" function="internal">
        <lane id=":16_14_0" index="0" speed="7.92" length="13.09" shape="74.69,53.90 77.80,54.79 80.67,56.75 82.77,59.38 83.59,62.28"/>
    </edge>
    <edge id=":16_15" function="internal">
        <lane id=":16_15_0" index="0" speed="3.65" length="4.67" shape="74.69,53.90 75.83,54.78 76.17,55.61 75.71,56.38 74.45,57.09"/>
    </edge>
    <edge id=":17_0" function="internal">
        <lane id=":17_0_0" index="0" speed="5.13" length="5.99" shape="80.39,53.43 79.62,53.02 77.84,53.11 75.89,53.42 74.56,53.68"/>
    </edge>
    <edge id=":17_1" function="internal">
        <lane id=":17_1_0" index="0" speed="13.89" length="8.32" shape="80.39,53.43 80.43,45.11"/>
    </edge>
    <edge id=":17_2" function="internal">
        <lane id=":17_2_0" index="0" speed="3.65" length="1.44" shape="80.39,53.43 81.19,52.23"/>
    </edge>
    <edge id=":17_9" function="internal">
        <lane id=":17_9_0" index="0" speed="3.65" length="3.23" shape="81.19,52.23 81.99,51.83 82.79,52.23 83.59,53.43"/>
    </edge>
    <edge id=":17_3" function="internal">
        <lane id=":17_3_0" index="0" speed="13.89" length="8.31" shape="83.63,45.13 83.59,53.43"/>
    </edge>
    <edge id=":17_4" function="internal">
        <lane id=":17_4_0" index="0" speed="8.49" length="3.25" shape="83.63,45.13 83.04,48.20 82.97,48.30"/>
    </edge>
    <edge id=":17_5" function="internal">
        <lane id=":17_5_0" index="0" speed="3.65" length="1.44" shape="83.63,45.13 82.82,46.32"/>
    </edge>
    <edge id=":17_10" function="internal">
        <lane id=":17_10_0" index="0" speed="8.49" length="10.36" shape="82.97,48.30 81.34,50.65 78.51,52.48 74.56,53.68"/>
    </edge>
    <edge id=":17_11" function="internal">
        <lane id=":17_11_0" index="0" speed="3.65" length="3.23" shape="82.82,46.32 82.02,46.72 81.22,46.31 80.43,45.11"/>
    </edge>
    <edge id=":17_6" function="internal">
        <lane id=":17_6_0" index="0" speed="7.08" length="9.20" shape="73.94,50.55 76.77,49.72 78.79,48.54 80.01,47.00 80.43,45.11"/>
    </edge>
    <edge id=":17_7" function="internal">
        <lane id=":17_7_0" index="0" speed="6.82" length="11.51" shape="73.94,50.55 78.16,50.00 81.18,50.31 82.99,51.45 83.59,53.43"/>
    </edge>
    <edge id=":17_8" function="internal">
        <lane id=":17_8_0" index="0" speed="3.65" length="4.67" shape="73.94,50.55 75.27,51.10 75.82,51.80 75.58,52.66 74.56,53.68"/>
    </edge>
    <edge id=":18_0" function="internal">
        <lane id=":18_0_0" index="0" speed="7.20" length="10.97" shape="97.97,63.17 97.39,60.75 95.85,59.02 93.36,57.98 89.91,57.64"/>
    </edge>
    <edge id=":18_1" function="internal">
        <lane id=":18_1_0" index="0" speed="13.89" length="15.43" shape="97.97,63.17 97.51,59.40 96.51,55.64 95.10,51.99 93.40,48.56"/>
    </edge>
    <edge id=":18_2" function="internal">
        <lane id=":18_2_0" index="0" speed="3.65" length="1.44" shape="97.97,63.17 98.72,61.94"/>
    </edge>
    <edge id=":18_9" function="internal">
        <lane id=":18_9_0" index="0" speed="3.65" length="3.23" shape="98.72,61.94 99.51,61.51 100.32,61.88 101.17,63.05"/>
    </edge>
    <edge id=":18_3" function="internal">
        <lane id=":18_3_0" index="0" speed="13.89" length="16.88" shape="96.21,47.03 97.97,50.68 99.52,54.81 100.65,59.06 101.17,63.05"/>
    </edge>
    <edge id=":18_4" function="internal">
        <lane id=":18_4_0" index="0" speed="7.42" length="5.38" shape="96.21,47.03 97.99,51.67 97.93,52.07"/>
    </edge>
    <edge id=":18_5" function="internal">
        <lane id=":18_5_0" index="0" speed="3.65" length="1.44" shape="96.21,47.03 96.09,48.46"/>
    </edge>
    <edge id=":18_10" function="internal">
        <lane id=":18_10_0" index="0" speed="7.42" length="11.25" shape="97.93,52.07 97.53,54.98 94.84,56.97 89.91,57.64"/>
    </edge>
    <edge id=":18_11" function="internal">
        <lane id=":18_11_0" index="0" speed="3.65" length="3.23" shape="96.09,48.46 95.57,49.20 94.68,49.23 93.40,48.56"/>
    </edge>
    <edge id=":18_6" function="internal">
        <lane id=":18_6_0" index="0" speed="5.70" length="9.21" shape="89.91,54.44 92.64,54.07 94.13,52.97 94.39,51.13 93.40,48.56"/>
    </edge>
    <edge id=":18_7" function="internal">
        <lane id=":18_7_0" index="0" speed="8.57" length="15.97" shape="89.91,54.44 94.71,54.97 98.19,56.59 100.34,59.28 101.17,63.05"/>
    </edge>
    <edge id=":18_8" function="internal">
        <lane id=":18_8_0" index="0" speed="3.65" length="4.67" shape="89.91,54.44 91.11,55.24 91.51,56.04 91.11,56.84 89.91,57.64"/>
    </edge>
    <edge id=":19_0" function="internal">
        <lane id=":19_0_0" index="0" speed="13.89" length="8.49" shape="83.68,36.43 83.63,44.93"/>
    </edge>
    <edge id=":19_1" function="internal">
        <lane id=":19_1_0" index="0" speed="7.01" length="1.86" shape="83.68,36.43 83.12,38.21"/>
    </edge>
    <edge id=":19_2" function="internal">
        <lane id=":19_2_0" index="0" speed="3.65" length="1.44" shape="83.68,36.43 82.87,37.63"/>
    </edge>
    <edge id=":19_9" function="internal">
        <lane id=":19_9_0" index="0" speed="7.01" length="8.80" shape="83.12,38.21 81.45,39.46 78.70,40.20 74.84,40.42"/>
    </edge>
    <edge id=":19_10" function="internal">
        <lane id=":19_10_0" index="0" speed="3.65" length="3.23" shape="82.87,37.63 82.07,38.02 81.27,37.61 80.48,36.40"/>
    </edge>
    <edge id=":19_3" function="internal">
        <lane id=":19_3_0" index="0" speed="5.37" length="5.81" shape="74.88,37.22 76.17,37.23 78.05,37.19 79.74,36.95 80.48,36.40"/>
    </edge>
    <edge id=":19_4" function="internal">
        <lane id=":19_4_0" index="0" speed="7.77" length="13.27" shape="74.88,37.22 78.72,37.73 81.46,39.19 83.10,41.58 83.63,44.93"/>
    </edge>
    <edge id=":19_5" function="internal">
        <lane id=":19_5_0" index="0" speed="3.65" length="4.67" shape="74.88,37.22 76.07,38.03 76.46,38.83 76.05,39.63 74.84,40.42"/>
    </edge>
    <edge id=":19_6" function="internal">
        <lane id=":19_6_0" index="0" speed="6.22" length="8.13" shape="80.43,44.91 80.09,42.96 79.04,41.57 77.30,40.72 74.84,40.42"/>
    </edge>
    <edge id=":19_7" function="internal">
        <lane id=":19_7_0" index="0" speed="13.89" length="8.50" shape="80.43,44.91 80.48,36.40"/>
    </edge>
    <edge id=":19_8" function="internal">
        <lane id=":19_8_0" index="0" speed="3.65" length="1.44" shape="80.43,44.91 81.23,43.71"/>
    </edge>
    <edge id=":19_11" function="internal">
        <lane id=":19_11_0" index="0" speed="3.65" length="3.23" shape="81.23,43.71 82.04,43.32 82.83,43.72 83.63,44.93"/>
    </edge>
    <edge id=":2_0" function="internal">
        <lane id=":2_0_0" index="0" speed="6.09" length="7.21" shape="83.66,112.17 83.43,114.10 82.65,115.56 81.32,116.54 79.43,117.04"/>
    </edge>
    <edge id=":2_1" function="internal">
        <lane id=":2_1_0" index="0" speed="3.91" length="2.40" shape="79.05,113.86 79.68,113.69 80.13,113.37 80.39,112.88 80.46,112.24"/>
    </edge>
    <edge id=":20_0" function="internal">
        <lane id=":20_0_0" index="0" speed="5.09" length="9.27" shape="88.60,39.73 86.47,36.17 84.94,34.39 84.01,34.42 83.68,36.23"/>
    </edge>
    <edge id=":20_1" function="internal">
        <lane id=":20_1_0" index="0" speed="11.99" length="19.93" shape="88.60,39.73 84.99,33.80 81.52,29.55 78.21,26.97 75.03,26.06"/>
    </edge>
    <edge id=":20_2" function="internal">
        <lane id=":20_2_0" index="0" speed="13.89" length="20.75" shape="88.60,39.73 84.95,33.64 81.49,29.07 78.20,26.04 75.10,24.54"/>
    </edge>
    <edge id=":20_3" function="internal">
        <lane id=":20_3_0" index="0" speed="3.65" length="1.44" shape="88.60,39.73 88.72,38.30"/>
    </edge>
    <edge id=":20_16" function="internal">
        <lane id=":20_16_0" index="0" speed="3.65" length="3.23" shape="88.72,38.30 89.24,37.56 90.13,37.53 91.41,38.20"/>
    </edge>
    <edge id=":20_4" function="internal">
        <lane id=":20_4_0" index="0" speed="13.89" length="23.96" shape="75.25,21.28 79.26,23.07 83.29,26.49 87.34,31.53 91.41,38.20"/>
    </edge>
    <edge id=":20_5" function="internal">